@<TRIPOS>MOLECULE
generated by VMD
   36   38    1    0    0
SMALL
NO_CHARGES
****
Energy = 0

@<TRIPOS>ATOM
      1  HA2       23.8700   15.2680  -50.4900    H  117  NPH        0.000000
      2  CA        23.5150   14.6640  -49.2100    C  117  NPH        0.000000
      3  CB        23.6580   15.7020  -48.1130    C  117  NPH        0.000000
      4  SG        25.2810   16.4100  -47.8390    S  117  NPH        0.000000
      5  CD        25.4980   16.3100  -46.0590    C  117  NPH        0.000000
      6  CE        26.9710   16.4920  -45.8200    C  117  NPH        0.000000
      7  OZ        27.8150   15.3480  -45.8060    O  117  NPH        0.000000
      8  NZ        27.4110   17.7090  -45.6490    N  117  NPH        0.000000
      9  C6        28.8300   18.0150  -45.4360    C  117  NPH        0.000000
     10  C5        29.8000   17.0090  -45.4110    C  117  NPH        0.000000
     11  C6A       29.1950   19.3440  -45.2620    C  117  NPH        0.000000
     12  C4A       31.1370   17.3320  -45.2190    C  117  NPH        0.000000
     13  C10       30.5430   19.6840  -45.0640    C  117  NPH        0.000000
     14  C7        28.2010   20.3310  -45.2880    C  117  NPH        0.000000
     15  C4        32.0870   16.3140  -45.2020    C  117  NPH        0.000000
     16  C1A       31.5220   18.6690  -45.0460    C  117  NPH        0.000000
     17  N10       30.8920   21.0270  -44.8890    N  117  NPH        0.000000
     18  C8        28.5490   21.6700  -45.1110    C  117  NPH        0.000000
     19  C3        33.4390   16.5990  -45.0200    C  117  NPH        0.000000
     20  N1        32.8790   18.9630  -44.8610    N  117  NPH        0.000000
     21  C9        29.8890   22.0110  -44.9110    C  117  NPH        0.000000
     22  C2        33.8320   17.9240  -44.8520    C  117  NPH        0.000000
     23  HA3       22.0610   14.2060  -49.2450    H  117  NPH        0.000000
     24  H9        30.1490   23.0500  -44.7720    H  117  NPH        0.000000
     25  H7        27.1680   20.0580  -45.4450    H  117  NPH        0.000000
     26  H8        27.7850   22.4330  -45.1290    H  117  NPH        0.000000
     27  H5        29.5110   15.9770  -45.5410    H  117  NPH        0.000000
     28  H2        34.8790   18.1520  -44.7140    H  117  NPH        0.000000
     29  H4        31.7800   15.2870  -45.3310    H  117  NPH        0.000000
     30  H3        34.1630   15.7980  -45.0110    H  117  NPH        0.000000
     31  HA        24.1670   13.8150  -49.0060    H  117  NPH        0.000000
     32  HB1       23.2870   15.2860  -47.1760    H  117  NPH        0.000000
     33  HB2       22.9420   16.5060  -48.2860    H  117  NPH        0.000000
     34  HD1       25.1950   15.3220  -45.7120    H  117  NPH        0.000000
     35  HD2       24.9510   17.1230  -45.5820    H  117  NPH        0.000000
     36  HNZ       26.7650   18.4860  -45.6600    H  117  NPH        0.000000
@<TRIPOS>BOND
    1     1     2  1
    2     2     3  1
    3     2    23  1
    4     2    31  1
    5     3     4  1
    6     3    32  1
    7     3    33  1
    8     4     5  1
    9     5     6  1
   10     5    34  1
   11     5    35  1
   12     6     8  1
   13     6     7  2
   14     8     9  1
   15     8    36  1
   16     9    11  1
   17     9    10  2
   18    10    27  1
   19    10    12  1
   20    11    13  1
   21    11    14  2
   22    12    16  1
   23    12    15  2
   24    13    16  1
   25    13    17  2
   26    14    25  1
   27    14    18  1
   28    15    29  1
   29    15    19  1
   30    16    20  2
   31    17    21  1
   32    18    26  1
   33    18    21  2
   34    19    30  1
   35    19    22  2
   36    20    22  1
   37    21    24  1
   38    22    28  1

@<TRIPOS>SUBSTRUCTURE
1 ****        1 TEMP                        0 ****  **** 0 ROOT
